/*--------------------------------*- C++ -*----------------------------------*\
| =========                 |                                                 |
| \\      /  F ield         | OpenFOAM: The Open Source CFD Toolbox           |
|  \\    /   O peration     | Version:  5.0                                   |
|   \\  /    A nd           | Web:      www.OpenFOAM.org                      |
|    \\/     M anipulation  |                                                 |
\*---------------------------------------------------------------------------*/
FoamFile
{
    version     2.0;
    format      binary;
    class       volVectorField;
    location    "0";
    object      U;
}
// * * * * * * * * * * * * * * * * * * * * * * * * * * * * * * * * * * * * * //

dimensions      [ 0 1 -1 0 0 0 0 ];

internalField   uniform ( 1 0 0 );

boundaryField
{
    bott
    {
        type            fixedValue;
        value           uniform ( 0 0 0 );
    }
    leftSide
    {
        type            fixedValue;
        value           uniform ( 0 0 0 );
    }
    inlet
    {
        type            fixedValue;
        value           uniform ( 1 0 0 );
    }
    outlet
    {
        type            zeroGradient;
    }
    top
    {
        type            fixedValue;
        value           uniform ( 0 0 0 );
    }
    rightSide
    {
        type            fixedValue;
        value           uniform ( 0 0 0 );
    }

}

// ************************************************************************* //
